8500-Node/IEEE8500_Losses.Txt

LOSSES REPORT

Power Delivery Element Loss Report

Element                  kW Losses    % of Power   kvar Losses

"Line.HVMV_SUB_CONNECTOR"     0.00083,      0.0     0.00829032
"Line.LN5502549-1"            0.00021,      0.0     -0.00397003
"Line.LN6259988-1"            0.00037,      0.0     -0.013861
"Line.LN6077796-1"            0.00005,      0.0     -0.00140375
"Line.LN5835135-2"            0.02196,     0.02     0.00641147
"Line.LN5896826-1"            0.00016,      0.0     -0.0269673
"Line.LN5714038-1"            0.00081,      0.0     -0.0126709
"Line.LN5653457-1"            0.32675,     0.06     0.0757302
"Line.LN5835173-1"            0.15947,     0.02     0.134321
"Line.LN6321415-1"            0.00021,      0.0     -0.011674
"Line.LN5565092-1"            0.00003,      0.0     -0.000469045
"Line.LN6073648-1"            0.00012,      0.0     -0.000923735
"Line.LN5774457-1"            0.10134,     0.02     0.0164372
"Line.LN5534966-3"            0.00504,     0.01     -0.000308791
"Line.LN5859996-1"            0.00005,      0.0     -0.000769621
"Line.LN6138610-2"            1.39984,     0.06     0.439812
"Line.LN6258435-3"            0.00066,      0.0     -0.0117784
"Line.LN5804790-1"            0.00071,      0.0     -0.0241004
"Line.LN6900591-14"           0.00148,     0.00     -0.00716043
"Line.LN6409873-1"            0.01347,     0.02     -0.0019718
"Line.LN6014135-1"            0.00062,      0.0     -0.00017923
"Line.LN6077784-1"            0.31614,     0.03     0.265611
"Line.LN5744338-1"            0.06709,     0.04     0.0310027
"Line.LN6991381-4"            0.00230,     0.01     -0.0085974
"Line.LN5774480-1"            0.26155,     0.12     0.126752
"Line.LN5986938-3"            0.00043,      0.0     -0.000839138
"Line.LN5894230-1"            0.00044,      0.0     -0.0161826
"Line.LN5683858-3"            0.00088,      0.0     -0.00982836
"Line.LN5920279-5"            0.99537,     0.02     2.36452
"Line.LN6439600-1"            0.00020,      0.0     -0.0133863
"Line.LN5589097-1"            0.00011,      0.0     -0.0031586
"Line.LN5651975-1"            0.28805,     0.04     0.0925203
"Line.LN5865236-1"            0.00010,      0.0     -0.0011357
"Line.LN5593232-1"            0.00033,      0.0     -0.0187034
"Line.LN5740283-1"            0.00003,      0.0     -0.000887277
"Line.LN6106559-1"            0.00265,     0.01     -0.01111
"Line.LN5714056-3"            0.70478,     0.11     0.208986
"Line.LN5985355-3"            0.36792,     0.09     0.192754
"Line.LN5531956-1"            0.00012,      0.0     -0.00872163
"Line.LN5650048-1"            0.00014,      0.0     -0.00771132
"Line.LN6290203-1"            0.24218,     0.03     0.19128
"Line.LN6134414-1"            0.00055,      0.0     -0.00790901
"Line.LN6259998-2"            0.00005,      0.0     -0.00177372
"Line.LN6078767-1"            0.24484,     0.01     0.548251
"Line.LN6017300-1"            0.00011,      0.0     -0.0114029
"Line.LN8979257-2"            0.00004,      0.0     -0.0380209
"Line.LN81048109-1"           0.00200,     0.01     -0.0509681
"Line.293471"                 0.00027,      0.0     -0.017686
"Line.LN5534965-2"            0.00002,      0.0     -0.000804863
"Line.LN5655683-1"            0.00418,     0.00     0.00159243
"Line.LN5686247-1"            0.00005,      0.0     -0.000807163
"Line.LN6048642-1"            0.00000,      0.0     -0.0135704
"Line.LN5928544-3"            0.01942,     0.02     0.00340776
"Line.LN6108172-1"            0.00157,     0.01     -0.025229
"Line.LN5532754-1"            0.11963,     0.02     0.0366955
"Line.LN5591834-1"            0.00109,     0.00     -0.00865884
"Line.LN6347196-2"            0.06465,     0.01     0.00743713
"Line.LN5532741-1"            0.00801,     0.01     -0.00325967
"Line.LN5804803-1"            0.00020,      0.0     -0.0373928
"Line.LN6169248-1"            0.96226,     0.06     0.905734
"Line.LN5532786-2"            0.00009,      0.0     -0.00206702
"Line.LN5744339-1"            0.03758,     0.03     0.0101465
"Line.LN5531255-3"            0.02628,     0.02     0.00787308
"Line.LN5926308-2"            0.23346,     0.03     0.0642999
"Line.LN5683856-3"            0.00007,      0.0     -0.00329059
"Line.LN6171502-1"            0.00005,      0.0     -0.000876207
"Line.LN5593228-1"            0.00013,      0.0     -0.0077906
"Line.LN6380800-1"            0.00013,      0.0     -0.00743152
"Line.LN6199525-2"            0.00003,      0.0     -0.00881159
"Line.LN5772710-2"            0.01558,     0.02     -0.00270122
"Line.LN8961760-1"            0.00013,      0.0     -0.0028538
"Line.LN6047556-1"            0.00026,      0.0     -0.0153479
"Line.LN6138603-1"            0.00107,     0.01     -0.0158374
"Line.LN6108139-1"            0.00002,      0.0     -0.00227686
"Line.LN6388581-2"            0.00006,      0.0     -0.00679414
"Line.LN5774460-1"            0.00004,      0.0     -0.00746113
"Line.LN5624387-1"            0.00044,      0.0     -0.00681321
"Line.LN6137087-1"            0.00697,     0.01     -0.000777804
"Line.LN6077809-1"            0.02631,     0.03     0.00640945
"Line.LN6440079-1"            0.00079,      0.0     -0.00626662
"Line.LN5804794-1"            0.01650,     0.02     -0.000702345
"Line.LN5654484-1"            0.00010,      0.0     -0.00358712
"Line.LN5774465-1"            0.00092,     0.01     -0.014692
"Line.LN5473349-1"            0.89366,     0.01     2.11946
"Line.LN6169253-1"            0.00016,      0.0     -0.006979
"Line.LN6350536-1"            0.00011,      0.0     -0.0210402
"Line.LN6048523-1"            0.07529,     0.05     0.0276573
"Line.LN5594152-1"            0.07299,     0.04     0.0418763
"Line.LN5865248-1"            0.34219,     0.04     0.0945685
"Line.LN6046143-1"            0.00005,      0.0     -0.0111471
"Line.LN5803287-1"            0.00020,      0.0     -0.0026897
"Line.LN5589094-1"            0.12168,     0.05     0.0582601
"Line.LN5954983-1"            0.04219,     0.04     0.0119882
"Line.LN5924696-2"            0.00003,      0.0     -0.00565633
"Line.LN6506311-4"            0.00000,      0.0     -0.00110079
"Line.LN5653493-1"            0.01313,     0.01     0.00548238
"Line.LN5684836-1"            2.83523,     0.05     6.72873
"Line.LN5715016-3"            0.00005,      0.0     -0.00943041
"Line.LN6138614-1"            0.89403,     0.10     0.25856
"Line.LN6077781-2"            9.73474,     0.19     9.11769
"Line.LN5675121-1"            0.00003,      0.0     -0.0125789
"Line.LN5773046-1"            0.16499,     0.07     0.0818259
"Line.LN6380809-2"            0.09429,     0.01     0.036036
"Line.LN6018326-1"            0.00029,      0.0     -0.00780376
"Line.LN5472356-1"            0.00003,      0.0     -0.00787528
"Line.LN6139641-1"            2.27901,     0.03     5.41347
"Line.LN6018341-1"            0.71359,     0.03     1.59004
"Line.LN6017302-1"            0.13505,     0.05     0.0412097
"Line.LN6199505-1"            0.00002,      0.0     -0.00451362
"Line.LN5682327-1"            0.00367,     0.00     0.0012923
"Line.LN6290243-1"            0.00061,      0.0     -0.0078501
"Line.X8223_48332_SW"         0.01532,     0.00     0.0151112
"Line.LN6413567-3"            0.35866,     0.03     0.123533
"Line.LN5591731-3"            0.07519,     0.00     0.178585
"Line.LN5653470-1"            0.00028,      0.0     -0.0305072
"Line.LN6017316-1"            0.21652,     0.09     0.107067
"Line.LN5926299-1"            0.00055,      0.0     -0.00719433
"Line.LN5683831-1"            0.53279,     0.06     0.149993
"Line.LN6352700-1"            0.00008,      0.0     -0.000257022
"Line.LN6047570-1"            0.00004,      0.0     -0.00605977
"Line.LN5624342-1"            2.30967,     0.04     5.48425
"Line.LN6259992-1"            0.00013,      0.0     -0.00575979
"Line.LN5841919-1"            0.00008,      0.0     -0.0112508
"Line.LN6380811-1"            0.06504,     0.06     0.0186559
"Line.LN5683832-1"            0.00013,      0.0     -0.00956351
"Line.LN6077778-1"            0.00014,      0.0     -0.0109077
"Line.LN5561442-2"            3.19155,     0.04     7.58778
"Line.LN6259983-1"            0.00038,      0.0     -0.0201431
"Line.LN5865244-1"            0.02089,     0.02     0.00566218
"Line.LN6350555-1"            0.00005,      0.0     -0.00778204
"Line.LN5714039-1"            0.00259,     0.01     -0.00480024
"Line.LN5889821-1"            3.73864,     0.06     8.88129
"Line.LN5804791-1"            1.51115,     0.12     0.51546
"Line.LN5653486-1"            0.00262,     0.01     -0.00944874
"Line.LN5926286-1"            0.00211,     0.01     -0.00732675
"Line.LN6318859-1"            0.00000,      0.0     -0.00711224
"Line.LN5926316-1"            0.00205,     0.00     -0.000100804
"Line.LN5591703-1"            0.00067,      0.0     -0.00735074
"Line.LN5531333-1"            0.00177,     0.00     -0.00299114
"Line.LN6047581-1"            0.00004,      0.0     -0.00356863
"Line.LN6349077-1"            0.00000,      0.0     -0.00500912
"Line.LN6350574-1"            0.02291,     0.01     -0.0343392
"Line.LN6320343-1"            0.03701,     0.03     0.0111244
"Line.LN81048100-5"           0.03928,     0.02     -0.00497658
"Line.LN6348946-1"            0.00002,      0.0     -0.0010647
"Line.LN5744351-1"            0.00016,      0.0     -0.00962542
"Line.LN5472342-1"            0.00004,      0.0     -0.00732104
"Line.LN5621849-1"            0.00007,      0.0     -0.000612957
"Line.LN6379375-1"            0.00004,      0.0     -0.00679093
"Line.LN6028890-1"            0.00062,      0.0     -0.0208071
"Line.LN6380822-1"            0.90321,     0.07     0.787114
"Line.LN5835131-1"            0.24980,     0.03     0.192753
"Line.LN5803262-7"            0.00001,      0.0     -0.0018541
"Line.LN81048089-1"           0.03379,     0.03     -0.0499612
"Line.LN6201699-1"            0.00003,      0.0     -0.000924132
"Line.LN5746548-1"            0.05621,     0.01     0.0165201
"Line.LN5835174-1"            0.42112,     0.17     0.209064
"Line.LN6505947-4"            0.00134,     0.00     0.000425787
"Line.LN5683833-1"            0.31643,     0.15     0.14951
"Line.LN5561439-3"            0.12307,     0.02     0.212515
"Line.LN6109190-1"            0.00115,     0.00     -0.00357448
"Line.LN6258435-2"            0.00014,      0.0     -0.00241227
"Line.LN5804819-1"            0.00022,      0.0     -0.0232025
"Line.LN5593215-1"            0.08634,     0.04     0.0403978
"Line.LN5833717-1"            0.24350,     0.02     0.21158
"Line.LN6199557-1"            0.45794,     0.05     0.39273
"Line.LN5744332-1"            0.00008,      0.0     -0.00789919
"Line.LN5558790-1"            0.83967,     0.01     1.99319
"Line.LN6078692-1"            0.08781,     0.04     0.0414578
"Line.LN5956482-1"            0.01646,     0.00     0.00851224
"Line.LN5593225-1"            0.00017,      0.0     -0.00943292
"Line.LN6900591-26"           0.00046,      0.0     -0.000145424
"Line.LN5952393-1"            0.00235,     0.01     -0.00352217
"Line.LN6350531-1"            0.02279,     0.06     -0.0378142
"Line.LN5965099-10"           0.02375,     0.01     0.0127053
"Line.LN6047568-1"            0.44824,     0.19     0.21876
"Line.LN5926292-1"            0.00013,      0.0     -0.00816637
"Line.LN6380806-1"            0.00116,     0.00     -0.00736458
"Line.LN6341781-3"            0.00017,      0.0     -0.0113678
"Line.LN8979367-1"            0.00043,      0.0     -0.0640293
"Line.LN6018340-1"            0.00124,     0.01     -0.0134893
"Line.LN6380847-1"            0.47367,     0.08     0.118859
"Line.LN8961797-1"            0.00143,     0.01     -0.097124
"Line.LN6077797-1"            0.00747,     0.02     -0.0130641
"Line.LN6077773-1"            0.00535,     0.01     -0.00795186
"Line.LN5837496-4"            0.00008,      0.0     -0.00425181
"Line.LN5623392-1"            0.00413,     0.01     -0.0144048
"Line.LN5624380-1"            0.00126,     0.01     -0.0151469
"Line.LN6422809-2"            0.12432,     0.00     0.116689
"Line.LN5799561-1"            1.06997,     0.03     2.40924
"Line.LN6229818-1"            0.00006,      0.0     -0.010252
"Line.LN5593230-1"            0.18112,     0.07     0.0924425
"Line.LN5563901-3"            2.00708,     0.03     4.76856
"Line.LN6320339-1"            0.00715,     0.02     -0.0190169
"Line.LN5986927-1"            0.00004,      0.0     -0.00195734
"Line.LN6047567-1"            0.00018,      0.0     -0.00642052
"Line.LN5714047-1"            0.04090,     0.03     0.0134368
"Line.LN5563934-1"            0.00892,     0.02     -0.00800126
"Line.LN6169249-3"            0.00002,      0.0     -0.000569136
"Line.LN6230800-1"            0.00012,      0.0     -0.00467193
"Line.LN5985339-2"            0.00054,      0.0     -0.00983552
"Line.LN5898059-3"            0.00013,      0.0     -0.00296281
"Line.LN5956457-2"            0.07806,     0.01     0.0592501
"Line.LN5865229-1"            0.01952,     0.02     0.00391687
"Line.LN6018331-1"            0.61845,     0.02     1.3908
"Line.LN6199535-1"            0.00025,      0.0     -0.00923646
"Line.LN5502538-1"            0.72813,     0.10     0.228788
"Line.LN5742816-2"            0.01458,     0.02     -0.00228525
"Line.LN6229803-3"            0.00005,      0.0     -0.00300065
"Line.LN5986930-1"            0.05681,     0.06     0.00757193
"Line.LN6350532-1"            0.00011,      0.0     -0.00505501
"Line.LN5588016-3"            0.00711,     0.01     0.0024507
"Line.LN5623409-1"            0.00103,     0.01     -0.00910027
"Line.LN6350560-1"            0.01864,     0.02     0.00414536
"Line.LN5472347-1"            0.00141,     0.00     -0.00615266
"Line.LN6290199-1"            6.22982,     0.11     14.7766
"Line.LN6409775-3"            0.00226,     0.00     -0.00106032
"Line.LN5591811-1"            0.02886,     0.04     -0.0040622
"Line.LN6229808-1"            0.00013,      0.0     -0.00880052
"Line.LN5651985-3"            0.00036,      0.0     -0.00524714
"Line.LN6047577-1"            3.52151,     0.16     1.10649
"Line.LN5528574-2"            0.00002,      0.0     -0.000599054
"Line.LN5896827-1"            0.00015,      0.0     -0.00845983
"Line.LN5774451-1"            0.01625,     0.02     0.000701953
"Line.LN5504876-1"            0.00981,     0.01     -0.0352087
"Line.LN5860423-4"            1.30216,     0.03     1.21862
"Line.LN6138613-1"            0.00007,      0.0     -0.00502548
"Line.LN6077771-1"            0.03283,     0.02     0.0123913
"Line.LN6138636-1"            0.00052,      0.0     -0.0152612
"Line.LN6199512-1"            0.00128,     0.01     -0.0166128
"Line.LN6047564-1"            0.00058,      0.0     -0.00828134
"Line.LN6258460-3"            0.00052,      0.0     -0.0291078
"Line.LN5683810-1"            0.12529,     0.02     0.0974654
"Line.LN5852082-1"            0.00084,      0.0     -0.000450228
"Line.LN6380816-1"            0.00006,      0.0     -0.0086398
"Line.LN6108138-2"            0.00026,      0.0     -0.00124531
"Line.LN6167732-2"            0.00004,      0.0     -0.00186822
"Line.LN6229831-1"            0.07634,     0.03     0.0381143
"Line.LN6504020-2"           29.95131,     0.27     70.6891
"Line.LN81354561-2"           0.00002,      0.0     -0.00204743
"Line.LN5654476-1"            0.00056,      0.0     -0.010867
"Line.LN6987572-4"            0.02067,     0.01     0.0116935
"Line.LN6260025-1"            0.00016,      0.0     -0.00865682
"Line.LN5926291-1"            0.22678,     0.03     0.176443
"Line.LN8961800-1"            0.01063,     0.02     -0.0907123
"Line.LN6437757-1"            0.00007,      0.0     -0.00235174
"Line.LN5594245-1"            0.00003,      0.0     -0.00869092
"Line.LN5957492-1"            0.00001,      0.0     -0.000296442
"Line.LN5956464-1"            0.03040,     0.00     0.011621
"Line.LN6171683-1"            0.00009,      0.0     -0.00127086
"Line.LN5625715-1"            0.00002,      0.0     -0.000301684
"Line.LN5746706-2"            0.00135,     0.00     -0.0032687
"Line.LN5653491-1"            0.00030,      0.0     -0.00799506
"Line.LN5472361-1"            0.00004,      0.0     -0.0114393
"Line.LN5683856-2"            0.00002,      0.0     -0.00104737
"Line.LN5565091-1"            0.00003,      0.0     -0.00127742
"Line.LN5653466-1"            0.00079,      0.0     -0.0153017
"Line.LN5534966-2"            0.00275,     0.00     -0.000168607
"Line.LN6409762-1"            0.00008,      0.0     -0.00795206
"Line.LN6109158-1"            3.94161,     0.18     1.2314
"Line.LN5835145-1"            0.00086,      0.0     -0.019687
"Line.LN5774493-1"            0.00406,     0.01     -0.00955228
"Line.LN5835143-1"            5.01514,     0.28     1.52286
"Line.LN5926315-1"            0.00001,      0.0     -0.00135894
"Line.LN5895786-1"            0.00004,      0.0     -0.00758302
"Line.LN81048102-5"           0.00175,     0.00     -0.0016139
"Line.LN5861084-1"            0.00036,      0.0     -0.000921686
"Line.LN5774455-2"            0.00011,      0.0     -0.00204526
"Line.LN6108132-1"            0.00004,      0.0     -0.0101327
"Line.LN6077775-1"            0.00116,     0.01     -0.0170818
"Line.LN5591718-1"            0.00012,      0.0     -0.0127359
"Line.LN5653461-1"            0.00012,      0.0     -0.00870746
"Line.LN6290229-1"            0.00096,     0.00     -0.00270042
"Line.LN5774463-1"            0.00004,      0.0     -0.0100552
"Line.LN6380814-1"            0.00007,      0.0     -0.00740255
"Line.LN5895776-1"            0.00063,      0.0     -0.00726993
"Line.LN6200439-1"            0.00221,     0.00     -0.00304908
"Line.LN6138601-1"            0.00009,      0.0     -0.00165109
"Line.LN5927421-1"            0.00011,      0.0     -0.00644333
"Line.LN5532748-5"            0.46313,     0.03     0.423243
"Line.LN6506318-4"            0.00002,      0.0     -0.000420814
"Line.LN6288856-3"            0.09126,     0.05     0.0423266
"Line.LN5653452-1"            3.76011,     0.06     8.91848
"Line.LN6290205-1"            0.33496,     0.03     0.303249
"Line.LN6350547-1"            0.00015,      0.0     -0.00854705
"Line.LN6229800-1"            0.03103,     0.02     0.0108871
"Line.LN6138609-1"            0.12928,     0.05     0.0623942
"Line.LN81048090-1"           0.00000,      0.0     -0.0647346
"Line.LN5683828-1"            0.18600,     0.08     0.091347
"Line.LN8979256-1"            0.00017,      0.0     -0.146488
"Line.LN6506317-2"            0.00018,      0.0     -0.028293
"Line.LN6078744-1"            0.00028,      0.0     -0.00452308
"Line.LN81018875-1"           0.00003,      0.0     -0.00382441
"Line.LN6078691-1"            0.15363,     0.09     0.0612603
"Line.LN6258439-1"            0.39145,     0.07     0.176322
"Line.LN6108164-1"            0.22431,     0.06     0.117136
"Line.LN5927379-2"            0.00025,      0.0     -0.00931774
"Line.LN6110365-1"            0.00071,      0.0     -0.0123248
"Line.LN5773040-1"            0.34144,     0.06     0.145139
"Line.V7173_48332_SW"         0.21393,     0.00     0.213722
"Line.LN5534969-2"            0.78095,     0.01     1.855
"Line.LN6015891-1"            0.00000,      0.0     -0.0143436
"Line.LN5683816-1"            0.66538,     0.10     0.26725
"Line.LN6199561-1"            0.00046,      0.0     -0.00736279
"Line.LN6900591-12"           0.00288,     0.01     -0.00579322
"Line.LN6411363-1"            0.00043,      0.0     -0.0131204
"Line.LN6108130-6"            0.00025,      0.0     -0.0241017
"Line.LN5837516-1"            0.00010,      0.0     -0.00267699
"Line.LN6017301-4"            0.00007,      0.0     -0.00283888
"Line.LN5981121-1"            0.00007,      0.0     -0.0145485
"Line.LN81048107-4"           0.00086,      0.0     -0.0219733
"Line.LN5472374-1"            0.04939,     0.03     0.0203195
"Line.LN5746550-2"            0.00001,      0.0     -0.00123936
"Line.LN5561437-1"            0.07002,     0.03     -0.0387922
"Line.LN6439986-3"            0.00010,      0.0     -0.0038275
"Line.LN5744324-1"            0.01354,     0.03     -0.0147321
"Line.LN6376708-1"            0.00021,      0.0     -0.00107634
"Line.LN5895816-2"            0.00091,     0.00     -0.00856068
"Line.LN5593235-1"            0.00027,      0.0     -0.00986742
"Line.LN81354563-2"           0.00128,     0.00     -0.00469371
"Line.LN5866260-1"            0.00011,      0.0     -0.00582031
"Line.LN6018243-1"            0.00883,     0.02     -0.00652887
"Line.LN5928743-3"            0.00082,      0.0     -0.0149748
"Line.LN5957501-1"            0.00005,      0.0     -0.00506192
"Line.LN6379357-1"            0.00203,     0.00     -0.00232713
"Line.LN6291252-2"            0.31673,     0.01     0.705781
"Line.LN6440002-3"            0.00751,     0.01     0.00241379
"Line.LN6076346-1"            0.87947,     0.16     0.392092
"Line.LN8978752-1"            0.00178,     0.00     -0.0171092
"Line.LN5621834-1"            0.00605,     0.02     -0.0129216
"Line.LN6108123-1"            0.00008,      0.0     -0.00812008
"Line.LN6505952-4"            0.00001,      0.0     -0.000348222
"Line.LN5835159-1"            0.00004,      0.0     -0.00647513
"Line.LN5698090-2"            0.00011,      0.0     -0.000528928
"Line.LN5714050-1"            0.00036,      0.0     -0.00905526
"Line.LN5502529-1"            0.00001,      0.0     -0.000390793
"Line.LN5594236-1"            0.60259,     0.02     1.35682
"Line.LN5593248-1"            0.00011,      0.0     -0.0166225
"Line.LN5865272-1"            0.30123,     0.06     0.0812718
"Line.LN5924696-3"            0.00003,      0.0     -0.0065804
"Line.LN5589096-1"            0.00002,      0.0     -0.00126553
"Line.LN6017295-1"            0.41024,     0.13     0.214519
"Line.LN5970852-1"            0.02463,     0.01     0.0161931
"Line.LN5683820-1"            0.00008,      0.0     -0.00301973
"Line.LN6286966-3"            0.00003,      0.0     -0.00286655
"Line.LN6167715-1"            0.00001,      0.0     -0.0012129
"Line.LN6108140-2"            0.00004,      0.0     -0.00169984
"Line.LN6228279-1"            0.00027,      0.0     -0.00259558
"Line.LN5803264-2"            0.00003,      0.0     -0.00122798
"Line.LN6132680-1"            0.92320,     0.15     0.390819
"Line.LN5531195-1"            0.18978,     0.01     0.418576
"Line.LN5985361-1"            0.69049,     0.12     0.1765
"Line.LN6102293-1"            0.00397,     0.01     -0.0167081
"Line.LN8989758-1"            0.00010,      0.0     -0.0207917
"Line.LN6229790-1"            0.00147,     0.01     -0.00751968
"Line.LN5956469-1"            0.00049,      0.0     -0.00678681
"Line.LN5803270-3"            0.00023,      0.0     -0.00333952
"Line.LN81048102-6"           0.00179,     0.00     -0.00164609
"Line.LN6440070-1"            0.00000,      0.0     -0.031207
"Line.LN6048626-1"            3.22512,     0.04     7.66004
"Line.LN6076248-1"            0.10898,     0.03     0.0821605
"Line.LN6137083-1"            0.00000,      0.0     -0.00570428
"Line.LN6286261-1"            0.00061,      0.0     -0.00901866
"Line.LN5653477-1"            0.00064,      0.0     -0.0104194
"Line.LN6078810-1"            0.00031,      0.0     -0.00635071
"Line.LN6199526-1"            0.00004,      0.0     -0.00771019
"Line.LN6108125-2"            1.96532,     0.03     4.6685
"Line.LN6108149-1"            0.00054,      0.0     -0.0129088
"Line.LN6230759-1"            0.00015,      0.0     -0.0175817
"Line.LN8979249-1"            0.00005,      0.0     -0.011414
"Line.LN5865237-1"            0.00009,      0.0     -0.00952993
"Line.LN5706733-2"            0.00007,      0.0     -0.000630518
"Line.LN5745348-1"            0.66487,     0.02     1.49256
"Line.LN5898059-2"            0.00038,      0.0     -0.00863068
"Line.LN5744367-1"            0.14266,     0.08     0.0620566
"Line.LN5773136-1"            0.00006,      0.0     -0.0151675
"Line.LN5472403-2"            0.00690,     0.00     -0.00290057
"Line.LN5712496-1"            0.00013,      0.0     -0.00319496
"Line.LN5772710-1"            0.02359,     0.03     -0.000485105
"Line.LN6139544-1"            0.25944,     0.12     0.173141
"Line.LN6015788-2"            0.02357,     0.03     0.00208938
"Line.LN5591702-1"            0.12060,     0.07     0.0503861
"Line.LN5986923-1"            0.03525,     0.04     0.00189342
"Line.LN6301772-2"            0.00246,     0.00     -0.0010809
"Line.LN6001653-2"            0.27211,     0.05     0.0617291
"Line.LN6017283-1"            0.00195,     0.01     -0.00850508
"Line.LN5686079-1"            0.47782,     0.04     0.402322
"Line.LN5527264-7"            0.88106,     0.02     2.09288
"Line.LN5683813-1"            0.00001,      0.0     -0.00279921
"Line.LN5986935-1"            0.61398,     0.08     0.167329
"Line.LN5956457-3"            0.11764,     0.02     0.0892944
"Line.LN5654471-1"            0.70341,     0.02     1.58057
"Line.LN6409800-1"            0.00008,      0.0     -0.00492223
"Line.LN6411365-1"            0.00037,      0.0     -0.0267819
"Line.LN6320328-1"            0.07471,     0.07     0.0201007
"Line.LN5712477-3"            0.03937,     0.04     0.0083888
"Line.LN5621857-3"            0.00006,      0.0     -0.0138093
"Line.LN6440071-1"            0.09511,     0.08     0.0297471
"Line.LN5472355-1"            0.00065,      0.0     -0.0108527
"Line.LN6351523-3"            0.04826,     0.01     0.0257375
"Line.LN6047595-2"            0.00150,     0.00     -0.0842451
"Line.LN5800724-1"            0.00004,      0.0     -0.00107695
"Line.LN6422809-3"            0.28746,     0.01     0.269822
"Line.LN5532744-1"            0.00001,      0.0     -0.00247258
"Line.LN5594242-1"            7.44708,     0.06     17.5755
"Line.LN8979343-3"            0.00034,      0.0     -0.00415359
"Line.LN5835137-1"            0.00025,      0.0     -0.0113945
"Line.LN6170199-2"            0.00002,      0.0     -0.00249018
"Line.LN5683821-1"            0.00079,      0.0     -0.0110969
"Line.LN81048110-2"           0.00062,      0.0     -0.0416363
"Line.LN6506306-2"            0.00113,     0.00     -0.0138678
"Line.LN5593219-1"            0.00176,     0.01     -0.0089963
"Line.LN81048087-1"           0.00460,     0.00     -0.000584676
"Line.LN6268990-4"            0.00237,     0.00     0.00016677
"Line.LN8968082-2"            0.00232,     0.01     -0.0662223
"Line.LN5744344-1"            0.01820,     0.02     0.00434845
"Line.LN5593220-2"            0.00030,      0.0     -0.0072624
"Line.V9287_48332_SW"         0.00046,      0.0     0.000388265
"Line.LN6019477-1"            0.00702,     0.00     0.00272183
"Line.LN5593227-1"            0.00008,      0.0     -0.00112296
"Line.LN6409869-1"            0.00000,      0.0     -0.00599924
"Line.LN6321419-2"            0.00508,     0.01     -0.013084
"Line.LN6348954-1"            0.00018,      0.0     -0.0100923
"Line.LN6201695-2"            0.00002,      0.0     -0.0011705
"Line.LN6048635-1"            0.00436,     0.01     -0.0112203
"Line.LN6199519-1"            0.15103,     0.07     0.0722833
"Line.LN6505938-4"            0.00002,      0.0     -0.000299051
"Line.LN5472375-1"            0.03850,     0.01     0.0114614
"Line.LN5835124-1"            0.00043,      0.0     -0.00649754
"Line.LN6103927-1"            0.00005,      0.0     -0.000803446
"Line.LN6138622-1"            0.00022,      0.0     -0.00383784
"Line.LN5776673-1"            0.00030,      0.0     -0.000432733
"Line.LN6074369-1"            0.00018,      0.0     -0.00241156
"Line.LN5621826-1"            0.00008,      0.0     -0.00382318
"Line.LN6506312-2"            0.01168,     0.02     -0.0046529
"Line.LN6046046-1"            0.00013,      0.0     -0.00755584
"Line.LN6138589-1"            0.00002,      0.0     -0.00476858
"Line.LN6258445-1"            0.00002,      0.0     -0.000858002
"Line.LN5653480-1"            4.39029,     0.08     4.12691
"Line.LN5717630-1"            0.02153,     0.02     0.0084137
"Line.LN5956463-1"            1.87128,     0.15     0.646381
"Line.LN5744328-1"            0.00213,     0.00     -0.00122229
"Line.LN8979254-1"            0.00007,      0.0     -0.0142903
"Line.LN5620694-1"            0.00036,      0.0     -0.00690801
"Line.LN6048634-1"            5.29399,     0.05     12.4949
"Line.LN5895779-1"            0.00005,      0.0     -0.00589839
"Line.LN5951197-2"            0.00014,      0.0     -0.0218395
"Line.LN5563942-3"            4.54655,     0.04     10.7257
"Line.LN5835123-1"            0.00111,     0.01     -0.0174915
"Line.LN5956483-1"            0.00088,      0.0     -0.00804224
"Line.LN6291153-1"            0.00036,      0.0     -0.00853801
"Line.LN5683841-1"            0.00071,      0.0     -0.0107312
"Line.LN5804802-1"            1.45859,     0.13     0.515739
"Line.LN6167753-1"            0.00004,      0.0     -0.00945979
"Line.LN6047569-1"            0.00011,      0.0     -0.0117005
"Line.LN6229809-1"            0.70499,     0.10     0.207249
"Line.LN5804781-1"            0.01732,     0.02     0.000314196
"Line.LN6352701-1"            0.00000,      0.0     -0.00140064
"Line.LN5955074-2"            0.01603,     0.02     -0.00235267
"Line.LN6229805-1"            0.00150,     0.01     -0.010865
"Line.LN6411376-1"            0.00126,     0.00     0.000170581
"Line.LN5654485-1"            0.00006,      0.0     -0.0145186
"Line.LN5746550-3"            0.00005,      0.0     -0.00820218
"Line.LN6232159-1"            0.00000,      0.0     -0.000540631
"Line.LN6412346-1"            0.00030,      0.0     -0.0177727
"Line.LN6350548-1"            0.00134,     0.01     -0.00718803
"Line.LN6106658-1"            0.02622,     0.02     0.0111203
"Line.LN6047554-1"            0.00011,      0.0     -0.00344947
"Line.LN5956458-1"            0.00015,      0.0     -0.00966352
"Line.LN5752776-2"            0.06179,     0.01     0.0219143
"Line.LN5651988-1"            0.00021,      0.0     -0.00592471
"Line.LN5562935-1"            0.00038,      0.0     -0.0121438
"Line.LN5502521-1"            0.00143,     0.01     -0.00606919
"Line.LN6409797-3"            0.05322,     0.04     0.0187377
"Line.LN5926332-1"            0.00040,      0.0     -0.00804256
...