8500-Node/IEEE8500_Power_elem_kVA.txt

CIRCUIT ELEMENT POWER FLOW

(Power Flow into element from indicated Bus)

Power Delivery Elements

  Bus                Phase     kW     +j   kvar         kVA         PF

ELEMENT = "Vsource.SOURCE"
SOURCEBUS                1     -3670.1 +j     38.0     3670.3      -0.9999
SOURCEBUS                2     -3648.1 +j    -48.7     3648.5       0.9999
SOURCEBUS                3     -3848.0 +j     55.5     3848.4      -0.9999
   TERMINAL TOTAL ............-11166.2 +j     44.8    11166.3      -1.0000
SOURCEBUS                0         0.0 +j      0.0        0.0       1.0000
SOURCEBUS                0         0.0 +j      0.0        0.0       1.0000
SOURCEBUS                0         0.0 +j      0.0        0.0       1.0000
   TERMINAL TOTAL ............     0.0 +j      0.0        0.0       1.0000

ELEMENT = "Line.HVMV_SUB_CONNECTOR"
_HVMV_SUB_LSB            1      3652.2 +j   -286.2     3663.4      -0.9969
_HVMV_SUB_LSB            2      3630.4 +j   -196.6     3635.7      -0.9985
_HVMV_SUB_LSB            3      3828.3 +j   -328.4     3842.4      -0.9963
   TERMINAL TOTAL ............ 11110.9 +j   -811.2    11140.4      -0.9973
HVMV_SUB_48332           1     -3652.2 +j    286.2     3663.4      -0.9969
HVMV_SUB_48332           2     -3630.4 +j    196.6     3635.7      -0.9985
HVMV_SUB_48332           3     -3828.3 +j    328.4     3842.4      -0.9963
   TERMINAL TOTAL ............-11110.9 +j    811.2    11140.4      -0.9973

ELEMENT = "Line.LN5502549_1"
M1009763                 2        11.9 +j      3.0       12.2       0.9687
   TERMINAL TOTAL ............    11.9 +j      3.0       12.2       0.9687
L2673322                 2       -11.9 +j     -3.0       12.2       0.9687
   TERMINAL TOTAL ............   -11.9 +j     -3.0       12.2       0.9687

ELEMENT = "Line.LN6259988_1"
M1069148                 3        10.3 +j      2.6       10.6       0.9686
   TERMINAL TOTAL ............    10.3 +j      2.6       10.6       0.9686
L2673309                 3       -10.3 +j     -2.6       10.6       0.9686
   TERMINAL TOTAL ............   -10.3 +j     -2.6       10.6       0.9686

ELEMENT = "Line.LN6077796_1"
M1069588                 2        11.2 +j      2.9       11.5       0.9686
   TERMINAL TOTAL ............    11.2 +j      2.9       11.5       0.9686
L2804270                 2       -11.2 +j     -2.9       11.5       0.9686
   TERMINAL TOTAL ............   -11.2 +j     -2.9       11.5       0.9686

ELEMENT = "Line.LN5835135_2"
M3036164                 2        91.1 +j     23.4       94.0       0.9685
   TERMINAL TOTAL ............    91.1 +j     23.4       94.0       0.9685
L2935553                 2       -91.0 +j    -23.4       94.0       0.9685
   TERMINAL TOTAL ............   -91.0 +j    -23.4       94.0       0.9685

ELEMENT = "Line.LN5896826_1"
M1209749                 2         5.9 +j      1.5        6.1       0.9688
   TERMINAL TOTAL ............     5.9 +j      1.5        6.1       0.9688
L2748840                 2        -5.9 +j     -1.5        6.1       0.9688
   TERMINAL TOTAL ............    -5.9 +j     -1.5        6.1       0.9688

ELEMENT = "Line.LN5714038_1"
M1108264                 2        15.5 +j      4.0       16.0       0.9686
   TERMINAL TOTAL ............    15.5 +j      4.0       16.0       0.9686
M1108263                 2       -15.5 +j     -4.0       16.0       0.9686
   TERMINAL TOTAL ............   -15.5 +j     -4.0       16.0       0.9686

ELEMENT = "Line.LN5653457_1"
L3085398                 1       112.7 +j     28.9      116.4       0.9687
L3085398                 2       253.3 +j     65.6      261.6       0.9680
L3085398                 3       113.5 +j     29.1      117.2       0.9687
   TERMINAL TOTAL ............   479.5 +j    123.6      495.2       0.9683
M1026891                 1      -112.7 +j    -28.9      116.3       0.9687
M1026891                 2      -253.1 +j    -65.5      261.4       0.9681
M1026891                 3      -113.5 +j    -29.1      117.2       0.9687
   TERMINAL TOTAL ............  -479.2 +j   -123.5      494.9       0.9684

ELEMENT = "Line.LN5835173_1"
L3216367                 1       168.6 +j     43.0      174.0       0.9689
L3216367                 2       373.0 +j     98.2      385.7       0.9671
L3216367                 3       329.8 +j     86.5      340.9       0.9673
   TERMINAL TOTAL ............   871.4 +j    227.7      900.6       0.9675
M1069468                 1      -168.6 +j    -43.0      174.0       0.9689
M1069468                 2      -372.8 +j    -98.1      385.5       0.9671
M1069468                 3      -329.7 +j    -86.5      340.9       0.9673
   TERMINAL TOTAL ............  -871.2 +j   -227.6      900.4       0.9675

ELEMENT = "Line.LN6321415_1"
M1142800                 2         9.8 +j      2.5       10.2       0.9688
   TERMINAL TOTAL ............     9.8 +j      2.5       10.2       0.9688
M1142799                 2        -9.8 +j     -2.5       10.2       0.9688
   TERMINAL TOTAL ............    -9.8 +j     -2.5       10.2       0.9688

ELEMENT = "Line.LN5565092_1"
M1047592                 3        15.5 +j      4.0       16.0       0.9687
   TERMINAL TOTAL ............    15.5 +j      4.0       16.0       0.9687
P827512                  3       -15.5 +j     -4.0       16.0       0.9687
   TERMINAL TOTAL ............   -15.5 +j     -4.0       16.0       0.9687

ELEMENT = "Line.LN6073648_1"
M1047339                 1        21.0 +j      5.4       21.6       0.9688
   TERMINAL TOTAL ............    21.0 +j      5.4       21.6       0.9688
P895104                  1       -21.0 +j     -5.4       21.6       0.9688
   TERMINAL TOTAL ............   -21.0 +j     -5.4       21.6       0.9688

ELEMENT = "Line.LN5774457_1"
M1026915                 1       166.5 +j     43.1      172.0       0.9681
M1026915                 2       147.0 +j     37.8      151.8       0.9686
M1026915                 3       161.6 +j     41.9      167.0       0.9680
   TERMINAL TOTAL ............   475.2 +j    122.8      490.8       0.9682
M1026920                 1      -166.4 +j    -43.1      171.9       0.9681
M1026920                 2      -147.0 +j    -37.8      151.8       0.9686
M1026920                 3      -161.6 +j    -41.9      167.0       0.9680
   TERMINAL TOTAL ............  -475.1 +j   -122.7      490.7       0.9682

ELEMENT = "Line.LN5534966_3"
N1138596                 1        65.3 +j     16.7       67.4       0.9688
   TERMINAL TOTAL ............    65.3 +j     16.7       67.4       0.9688
L3254207                 1       -65.3 +j    -16.7       67.4       0.9688
   TERMINAL TOTAL ............   -65.3 +j    -16.7       67.4       0.9688

ELEMENT = "Line.LN5859996_1"
M1069464                 2        17.1 +j      4.4       17.6       0.9687
   TERMINAL TOTAL ............    17.1 +j      4.4       17.6       0.9687
P873787                  2       -17.1 +j     -4.4       17.6       0.9687
   TERMINAL TOTAL ............   -17.1 +j     -4.4       17.6       0.9687

ELEMENT = "Line.LN6138610_2"
N1144665                 1       699.2 +j    181.7      722.5       0.9679
N1144665                 2       553.5 +j    146.7      572.6       0.9666
N1144665                 3       728.6 +j    192.8      753.7       0.9667
   TERMINAL TOTAL ............  1981.3 +j    521.2     2048.7       0.9671
M1047515                 1      -698.7 +j   -181.5      721.9       0.9679
M1047515                 2      -553.2 +j   -146.7      572.3       0.9666
M1047515                 3      -728.1 +j   -192.6      753.1       0.9667
   TERMINAL TOTAL ............ -1980.0 +j   -520.8     2047.3       0.9671

ELEMENT = "Line.LN6258435_3"
N1137002                 1        15.1 +j      3.9       15.6       0.9688
   TERMINAL TOTAL ............    15.1 +j      3.9       15.6       0.9688
M1047707                 1       -15.1 +j     -3.9       15.6       0.9688
   TERMINAL TOTAL ............   -15.1 +j     -3.9       15.6       0.9688

ELEMENT = "Line.LN5804790_1"
L2729406                 3        10.3 +j      2.6       10.6       0.9687
   TERMINAL TOTAL ............    10.3 +j      2.6       10.6       0.9687
L2897768                 3       -10.3 +j     -2.6       10.6       0.9687
   TERMINAL TOTAL ............   -10.3 +j     -2.6       10.6       0.9687

ELEMENT = "Line.LN6900591_14"
L3649301                 1        27.3 +j      7.0       28.1       0.9689
   TERMINAL TOTAL ............    27.3 +j      7.0       28.1       0.9689
L3649302                 1       -27.3 +j     -7.0       28.1       0.9689
   TERMINAL TOTAL ............   -27.3 +j     -7.0       28.1       0.9689

ELEMENT = "Line.LN6409873_1"
L2970842                 2        74.6 +j     19.2       77.0       0.9685
   TERMINAL TOTAL ............    74.6 +j     19.2       77.0       0.9685
M1089113                 2       -74.5 +j    -19.2       77.0       0.9685
   TERMINAL TOTAL ............   -74.5 +j    -19.2       77.0       0.9685

ELEMENT = "Line.LN6014135_1"
M1047312                 1        64.7 +j     16.6       66.7       0.9688
   TERMINAL TOTAL ............    64.7 +j     16.6       66.7       0.9688
P893163                  1       -64.7 +j    -16.6       66.7       0.9688
   TERMINAL TOTAL ............   -64.7 +j    -16.6       66.7       0.9688

ELEMENT = "Line.LN6077784_1"
L2822871                 1       326.5 +j     84.9      337.4       0.9679
L2822871                 2       425.0 +j    112.5      439.7       0.9667
L2822871                 3       302.6 +j     78.8      312.6       0.9678
   TERMINAL TOTAL ............  1054.1 +j    276.1     1089.7       0.9674
M1026872                 1      -326.4 +j    -84.8      337.3       0.9679
M1026872                 2      -424.9 +j   -112.4      439.5       0.9668
M1026872                 3      -302.5 +j    -78.7      312.6       0.9678
   TERMINAL TOTAL ............ -1053.8 +j   -275.9     1089.3       0.9674

ELEMENT = "Line.LN5744338_1"
M1026312                 2       159.6 +j     41.1      164.8       0.9684
   TERMINAL TOTAL ............   159.6 +j     41.1      164.8       0.9684
L2973163                 2      -159.5 +j    -41.1      164.7       0.9684
   TERMINAL TOTAL ............  -159.5 +j    -41.1      164.7       0.9684

ELEMENT = "Line.LN6991381_4"
L3728038                 1        30.2 +j      7.7       31.1       0.9689
   TERMINAL TOTAL ............    30.2 +j      7.7       31.1       0.9689
L3728039                 1       -30.2 +j     -7.7       31.1       0.9689
   TERMINAL TOTAL ............   -30.2 +j     -7.7       31.1       0.9689

ELEMENT = "Line.LN5774480_1"
M1069567                 2       209.4 +j     53.9      216.3       0.9684
   TERMINAL TOTAL ............   209.4 +j     53.9      216.3       0.9684
M1069582                 2      -209.2 +j    -53.8      216.0       0.9685
   TERMINAL TOTAL ............  -209.2 +j    -53.8      216.0       0.9685

ELEMENT = "Line.LN5986938_3"
N1140830                 1        30.4 +j      7.8       31.4       0.9689
   TERMINAL TOTAL ............    30.4 +j      7.8       31.4       0.9689
L3216351                 1       -30.4 +j     -7.8       31.4       0.9689
   TERMINAL TOTAL ............   -30.4 +j     -7.8       31.4       0.9689

ELEMENT = "Line.LN5894230_1"
L2952007                 3        10.3 +j      2.6       10.6       0.9688
   TERMINAL TOTAL ............    10.3 +j      2.6       10.6       0.9688
L2861158                 3       -10.3 +j     -2.6       10.6       0.9688
   TERMINAL TOTAL ............   -10.3 +j     -2.6       10.6       0.9688

ELEMENT = "Line.LN5683858_3"
N1140827                 1        14.5 +j      3.7       14.9       0.9690
N1140827                 2        26.2 +j      6.7       27.1       0.9688
N1140827                 3        20.2 +j      5.2       20.8       0.9688
   TERMINAL TOTAL ............    60.8 +j     15.6       62.8       0.9688
M1026726                 1       -14.5 +j     -3.7       14.9       0.9690
M1026726                 2       -26.2 +j     -6.7       27.1       0.9688
M1026726                 3       -20.2 +j     -5.2       20.8       0.9688
   TERMINAL TOTAL ............   -60.8 +j    -15.6       62.8       0.9688

ELEMENT = "Line.LN5920279_5"
L2730106                 1      1975.0 +j    615.8     2068.8       0.9547
L2730106                 2      1972.1 +j    648.9     2076.2       0.9499
L2730106                 3      1672.0 +j    496.2     1744.1       0.9587
   TERMINAL TOTAL ............  5619.2 +j   1760.9     5888.6       0.9542
N1142099                 1     -1974.5 +j   -615.0     2068.1       0.9548
N1142099                 2     -1971.9 +j   -648.1     2075.7       0.9500
N1142099                 3     -1671.9 +j   -495.8     1743.9       0.9587
   TERMINAL TOTAL ............ -5618.4 +j  -1759.0     5887.3       0.9543

ELEMENT = "Line.LN6439600_1"
M1026658                 1         7.3 +j      1.9        7.5       0.9688
   TERMINAL TOTAL ............     7.3 +j      1.9        7.5       0.9688
L3172805                 1        -7.3 +j     -1.9        7.5       0.9688
   TERMINAL TOTAL ............    -7.3 +j     -1.9        7.5       0.9688

ELEMENT = "Line.LN5589097_1"
P895112                  1        13.5 +j      3.4       13.9       0.9690
   TERMINAL TOTAL ............    13.5 +j      3.4       13.9       0.9690
L3048962                 1       -13.5 +j     -3.4       13.9       0.9690
   TERMINAL TOTAL ............   -13.5 +j     -3.4       13.9       0.9690

ELEMENT = "Line.LN5651975_1"
L2991914                 1       352.5 +j     92.1      364.4       0.9675
L2991914                 2        93.8 +j     23.9       96.7       0.9691
L2991914                 3       232.7 +j     59.4      240.2       0.9689
   TERMINAL TOTAL ............   679.0 +j    175.4      701.3       0.9682
M1047503                 1      -352.4 +j    -92.0      364.2       0.9675
M1047503                 2       -93.7 +j    -23.9       96.7       0.9691
M1047503                 3      -232.7 +j    -59.4      240.1       0.9689
   TERMINAL TOTAL ............  -678.8 +j   -175.3      701.0       0.9682

ELEMENT = "Line.LN5865236_1"
M1047751                 1        14.8 +j      3.8       15.3       0.9688
   TERMINAL TOTAL ............    14.8 +j      3.8       15.3       0.9688
L2973154                 1       -14.8 +j     -3.8       15.3       0.9688
   TERMINAL TOTAL ............   -14.8 +j     -3.8       15.3       0.9688

ELEMENT = "Line.LN5593232_1"
L3010565                 3        10.3 +j      2.6       10.6       0.9686
   TERMINAL TOTAL ............    10.3 +j      2.6       10.6       0.9686
L2897775                 3       -10.3 +j     -2.6       10.6       0.9686
   TERMINAL TOTAL ............   -10.3 +j     -2.6       10.6       0.9686

ELEMENT = "Line.LN5740283_1"
M1125955                 3        12.3 +j      3.1       12.7       0.9687
   TERMINAL TOTAL ............    12.3 +j      3.1       12.7       0.9687
M1125957                 3       -12.3 +j     -3.1       12.7       0.9687
   TERMINAL TOTAL ............   -12.3 +j     -3.1       12.7       0.9687

ELEMENT = "Line.LN6106559_1"
M1069640                 2        25.8 +j      6.6       26.7       0.9686
   TERMINAL TOTAL ............    25.8 +j      6.6       26.7       0.9686
L2804269                 2       -25.8 +j     -6.6       26.7       0.9686
   TERMINAL TOTAL ............   -25.8 +j     -6.6       26.7       0.9686

ELEMENT = "Line.LN5714056_3"
M1026702                 1       289.9 +j     74.6      299.3       0.9684
M1026702                 2        71.6 +j     18.3       73.9       0.9689
M1026702                 3       175.1 +j     44.9      180.8       0.9687
   TERMINAL TOTAL ............   536.6 +j    137.8      554.0       0.9686
N1139551                 1      -289.4 +j    -74.4      298.8       0.9685
N1139551                 2       -71.6 +j    -18.3       73.9       0.9689
N1139551                 3      -174.9 +j    -44.8      180.6       0.9687
   TERMINAL TOTAL ............  -536.0 +j   -137.5      553.3       0.9686

ELEMENT = "Line.LN5985355_3"
N1136355                 2       368.9 +j     95.3      381.0       0.9682
   TERMINAL TOTAL ............   368.9 +j     95.3      381.0       0.9682
L2783231                 2      -368.5 +j    -95.1      380.6       0.9683
   TERMINAL TOTAL ............  -368.5 +j    -95.1      380.6       0.9683

ELEMENT = "Line.LN5531956_1"
L2748143                 1         8.4 +j      2.1        8.6       0.9688
   TERMINAL TOTAL ............     8.4 +j      2.1        8.6       0.9688
L3251854                 1        -8.4 +j     -2.1        8.6       0.9688
   TERMINAL TOTAL ............    -8.4 +j     -2.1        8.6       0.9688

ELEMENT = "Line.LN5650048_1"
M1069610                 2         9.2 +j      2.4        9.5       0.9687
   TERMINAL TOTAL ............     9.2 +j      2.4        9.5       0.9687
M1069600                 2        -9.2 +j     -2.4        9.5       0.9687
   TERMINAL TOTAL ............    -9.2 +j     -2.4        9.5       0.9687

ELEMENT = "Line.LN6290203_1"
M1069424                 1       129.2 +j     33.0      133.4       0.9689
M1069424                 2       318.5 +j     83.3      329.3       0.9674
M1069424                 3       267.9 +j     69.8      276.8       0.9677
   TERMINAL TOTAL ............   715.6 +j    186.1      739.4       0.9678
L2935549                 1      -129.2 +j    -33.0      133.3       0.9689
L2935549                 2      -318.4 +j    -83.2      329.1       0.9675
L2935549                 3      -267.8 +j    -69.7      276.7       0.9678
   TERMINAL TOTAL ............  -715.4 +j   -185.9      739.1       0.9679

ELEMENT = "Line.LN6134414_1"
P895089                  3        20.6 +j      5.3       21.2       0.9687
   TERMINAL TOTAL ............    20.6 +j      5.3       21.2       0.9687
L3235242                 3       -20.6 +j     -5.3       21.2       0.9687
   TERMINAL TOTAL ............   -20.6 +j     -5.3       21.2       0.9687

ELEMENT = "Line.LN6259998_2"
M1026795                 3        12.3 +j      3.2       12.7       0.9686
   TERMINAL TOTAL ............    12.3 +j      3.2       12.7       0.9686
N1140522                 3       -12.3 +j     -3.2       12.7       0.9686
   TERMINAL TOTAL ............   -12.3 +j     -3.2       12.7       0.9686

ELEMENT = "Line.LN6078767_1"
L3030199                 1       736.9 +j    -79.7      741.2      -0.9942
L3030199                 2       833.5 +j    -36.3      834.3      -0.9991
L3030199                 3      1154.4 +j     29.7     1154.8       0.9997
   TERMINAL TOTAL ............  2724.8 +j    -86.3     2726.2      -0.9995
M1125934                 1      -736.9 +j     79.8      741.2      -0.9942
M1125934                 2      -833.4 +j     36.4      834.2      -0.9990
M1125934                 3     -1154.2 +j    -29.4     1154.6       0.9997
   TERMINAL TOTAL ............ -2724.6 +j     86.9     2726.0      -0.9995

ELEMENT = "Line.LN6017300_1"
M1069189                 3         6.2 +j      1.6        6.4       0.9686
   TERMINAL TOTAL ............     6.2 +j      1.6        6.4       0.9686
L2860487                 3        -6.2 +j     -1.6        6.4       0.9686
   TERMINAL TOTAL ............    -6.2 +j     -1.6        6.4       0.9686

ELEMENT = "Line.LN8979257_2"
221_312488               1         9.0 +j      2.3        9.2       0.9689
221_312488               2         9.8 +j      2.5       10.2       0.9687
221_312488               3        10.3 +j      2.6       10.6       0.9688
   TERMINAL TOTAL ............    29.1 +j      7.4       30.0       0.9688
M1089183                 1        -9.0 +j     -2.3        9.2       0.9689
M1089183                 2        -9.8 +j     -2.5       10.2       0.9687
M1089183                 3       -10.3 +j     -2.6       10.6       0.9688
   TERMINAL TOTAL ............   -29.1 +j     -7.4       30.0       0.9688

ELEMENT = "Line.LN81048109_1"
M1108464                 2        29.8 +j      7.6       30.8       0.9690
   TERMINAL TOTAL ............    29.8 +j      7.6       30.8       0.9690
L3102286                 2       -29.8 +j     -7.6       30.8       0.9690
   TERMINAL TOTAL ............   -29.8 +j     -7.6       30.8       0.9690

ELEMENT = "Line.293471"
F739845                  1         8.6 +j      2.2        8.9       0.9688
F739845                  2         8.9 +j      2.3        9.2       0.9687
F739845                  3        10.3 +j      2.6       10.6       0.9686
   TERMINAL TOTAL ............    27.8 +j      7.1       28.7       0.9687
293471                   1        -8.6 +j     -2.2        8.9       0.9688
293471                   2        -8.9 +j     -2.3        9.2       0.9687
293471                   3       -10.3 +j     -2.6       10.6       0.9686
   TERMINAL TOTAL ............   -27.8 +j     -7.1       28.7       0.9687

ELEMENT = "Line.LN5534965_2"
P827499                  1         7.5 +j      1.9        7.8       0.9688
   TERMINAL TOTAL ............     7.5 +j      1.9        7.8       0.9688
N1139254                 1        -7.5 +j     -1.9        7.8       0.9688
   TERMINAL TOTAL ............    -7.5 +j     -1.9        7.8       0.9688

ELEMENT = "Line.LN5655683_1"
M1026657                 1       113.2 +j     29.1      116.8       0.9685
   TERMINAL TOTAL ............   113.2 +j     29.1      116.8       0.9685
M1026656                 1      -113.2 +j    -29.1      116.8       0.9685
   TERMINAL TOTAL ............  -113.2 +j    -29.1      116.8       0.9685

ELEMENT = "Line.LN5686247_1"
M1108299                 2        13.8 +j      3.5       14.2       0.9687
   TERMINAL TOTAL ............    13.8 +j      3.5       14.2       0.9687
M1108300                 2       -13.8 +j     -3.5       14.2       0.9687
   TERMINAL TOTAL ............   -13.8 +j     -3.5       14.2       0.9687

ELEMENT = "Line.LN6048642_1"
L3198355                 2         0.0 +j      0.0        0.0       0.9933
   TERMINAL TOTAL ............     0.0 +j      0.0        0.0       0.9933
L2805037                 2        -0.0 +j     -0.0        0.0       0.9933
   TERMINAL TOTAL ............    -0.0 +j     -0.0        0.0       0.9933

ELEMENT = "Line.LN5928544_3"
N1137994                 3       102.7 +j     26.4      106.0       0.9685
   TERMINAL TOTAL ............   102.7 +j     26.4      106.0       0.9685
M1069484                 3      -102.7 +j    -26.4      106.0       0.9686
   TERMINAL TOTAL ............  -102.7 +j    -26.4      106.0       0.9686

ELEMENT = "Line.LN6108172_1"
L2860504                 1        14.5 +j      3.7       15.0       0.9688
   TERMINAL TOTAL ............    14.5 +j      3.7       15.0       0.9688
L2860493                 1       -14.5 +j     -3.7       15.0       0.9688
   TERMINAL TOTAL ............   -14.5 +j     -3.7       15.0       0.9688

ELEMENT = "Line.LN5532754_1"
M1026783                 1       322.4 +j     83.7      333.1       0.9679
M1026783                 2        93.7 +j     23.9       96.7       0.9690
M1026783                 3       192.7 +j     49.2      198.9       0.9689
   TERMINAL TOTAL ............   608.8 +j    156.9      628.7       0.9684
M1026780                 1      -322.4 +j    -83.7      333.1       0.9679
M1026780                 2       -93.7 +j    -23.9       96.7       0.9690
M1026780                 3      -192.7 +j    -49.2      198.8       0.9689
   TERMINAL TOTAL ............  -608.7 +j   -156.8      628.6       0.9684

ELEMENT = "Line.LN5591834_1"
P895111                  3        26.7 +j      6.8       27.6       0.9688
   TERMINAL TOTAL ............    26.7 +j      6.8       27.6       0.9688
L2895496                 3       -26.7 +j     -6.8       27.6       0.9688
   TERMINAL TOTAL ............   -26.7 +j     -6.8       27.6       0.9688

ELEMENT = "Line.LN6347196_2"
N1140819                 1       156.8 +j     40.2      161.9       0.9687
N1140819                 2        66.3 +j     16.9       68.4       0.9689
N1140819                 3       174.7 +j     44.8      180.4       0.9687
   TERMINAL TOTAL ............   397.8 +j    101.9      410.7       0.9687
M1026700                 1      -156.8 +j    -40.2      161.8       0.9687
M1026700                 2       -66.3 +j    -16.9       68.4       0.9689
M1026700                 3      -174.7 +j    -44.8      180.3       0.9687
   TERMINAL TOTAL ............  -397.8 +j   -101.9      410.6       0.9687

ELEMENT = "Line.LN5532741_1"
M1089173                 3        62.8 +j     16.1       64.8       0.9686
   TERMINAL TOTAL ............    62.8 +j     16.1       64.8       0.9686
L2935551                 3       -62.8 +j    -16.1       64.8       0.9686
   TERMINAL TOTAL ............   -62.8 +j    -16.1       64.8       0.9686

ELEMENT = "Line.LN5804803_1"
M1026344                 1         5.1 +j      1.3        5.3       0.9687
   TERMINAL TOTAL ............     5.1 +j      1.3        5.3       0.9687
M1026364                 1        -5.1 +j     -1.3        5.3       0.9688
   TERMINAL TOTAL ............    -5.1 +j     -1.3        5.3       0.9688

ELEMENT = "Line.LN6169248_1"
L2879070                 1       646.8 +j    169.8      668.7       0.9672
L2879070                 2       457.7 +j    123.4      474.1       0.9655
L2879070                 3       324.1 +j     84.5      335.0       0.9676
   TERMINAL TOTAL ............  1428.7 +j    377.7     1477.8       0.9668
L3216345                 1      -646.2 +j   -169.2      667.9       0.9674
L3216345                 2      -457.6 +j   -123.1      473.9       0.9656
L3216345                 3      -324.0 +j    -84.5      334.9       0.9676
   TERMINAL TOTAL ............ -1427.8 +j   -376.9     1476.7       0.9669

ELEMENT = "Line.LN5532786_2"
M1069428                 2        13.6 +j      3.5       14.0       0.9687
   TERMINAL TOTAL ............    13.6 +j      3.5       14.0       0.9687
N1139257                 2       -13.6 +j     -3.5       14.0       0.9687
   TERMINAL TOTAL ............   -13.6 +j     -3.5       14.0       0.9687

ELEMENT = "Line.LN5744339_1"
L2991919                 1       107.0 +j     27.4      110.5       0.9687
   TERMINAL TOTAL ............   107.0 +j     27.4      110.5       0.9687
M1026361                 1      -107.0 +j    -27.4      110.4       0.9687
   TERMINAL TOTAL ............  -107.0 +j    -27.4      110.4       0.9687

ELEMENT = "Line.LN5531255_3"
N1147857                 1        94.5 +j     24.2       97.6       0.9687
   TERMINAL TOTAL ............    94.5 +j     24.2       97.6       0.9687
M1009742                 1       -94.5 +j    -24.2       97.6       0.9687
   TERMINAL TOTAL ............   -94.5 +j    -24.2       97.6       0.9687

ELEMENT = "Line.LN5926308_2"
Q14412                   1       268.3 +j     68.6      276.9       0.9688
Q14412                   2       298.6 +j     78.4      308.7       0.9673
Q14412                   3       137.1 +j     35.1      141.5       0.9687
   TERMINAL TOTAL ............   704.0 +j    182.1      727.1       0.9681
M1047325                 1      -268.2 +j    -68.5      276.8       0.9688
M1047325                 2      -298.5 +j    -78.3      308.6       0.9673
M1047325                 3      -137.1 +j    -35.1      141.5       0.9687
   TERMINAL TOTAL ............  -703.8 +j   -182.0      726.9       0.9682

ELEMENT = "Line.LN5683856_3"
N1139263                 1         7.5 +j      1.9        7.8       0.9688
   TERMINAL TOTAL ............     7.5 +j      1.9        7.8       0.9688
L3048227                 1        -7.5 +j     -1.9        7.8       0.9688
   TERMINAL TOTAL ............    -7.5 +j     -1.9        7.8       0.9688

ELEMENT = "Line.LN6171502_1"
P827506                  1        12.1 +j      3.1       12.5       0.9688
   TERMINAL TOTAL ............    12.1 +j      3.1       12.5       0.9688
M1069469                 1       -12.1 +j     -3.1       12.5       0.9688
   TERMINAL TOTAL ............   -12.1 +j     -3.1       12.5       0.9688

ELEMENT = "Line.LN5593228_1"
M1027019                 2         8.5 +j      2.2        8.8       0.9687
   TERMINAL TOTAL ............     8.5 +j      2.2        8.8       0.9687
L2785522                 2        -8.5 +j     -2.2        8.8       0.9687
   TERMINAL TOTAL ............    -8.5 +j     -2.2        8.8       0.9687

ELEMENT = "Line.LN6380800_1"
L3216338                 2         8.3 +j      2.1        8.6       0.9687
   TERMINAL TOTAL ............     8.3 +j      2.1        8.6       0.9687
L2973146                 2        -8.3 +j     -2.1        8.6       0.9687
   TERMINAL TOTAL ............    -8.3 +j     -2.1        8.6       0.9687

ELEMENT = "Line.LN6199525_2"
M3037452                 1         3.4 +j      0.9        3.5       0.9687
   TERMINAL TOTAL ............     3.4 +j      0.9        3.5       0.9687
L2973164                 1        -3.4 +j     -0.9        3.5       0.9687
   TERMINAL TOTAL ............    -3.4 +j     -0.9        3.5       0.9687

ELEMENT = "Line.LN5772710_2"
L3120376                 1        59.9 +j     15.3       61.8       0.9687
   TERMINAL TOTAL ............    59.9 +j     15.3       61.8       0.9687
M1026925                 1       -59.9 +j    -15.3       61.8       0.9687
   TERMINAL TOTAL ............   -59.9 +j    -15.3       61.8       0.9687

ELEMENT = "Line.LN8961760_1"
M1047612                 3        36.2 +j      9.3       37.3       0.9688
   TERMINAL TOTAL ............    36.2 +j      9.3       37.3       0.9688
P828360                  3       -36.2 +j     -9.3       37.3       0.9688
   TERMINAL TOTAL ............   -36.2 +j     -9.3       37.3       0.9688

ELEMENT = "Line.LN6047556_1"
M1089195                 3        10.3 +j      2.6       10.6       0.9687
   TERMINAL TOTAL ............    10.3 +j      2.6       10.6       0.9687
L3141393                 3       -10.3 +j     -2.6       10.6       0.9687
   TERMINAL TOTAL ............   -10.3 +j     -2.6       10.6       0.9687

ELEMENT = "Line.LN6138603_1"
...