8500-Node/IEEE8500_Power_seq_kVA.txt

SYMMETRICAL COMPONENT POWERS BY CIRCUIT ELEMENT (first 3 phases)                                     Excess Power

Element                     Term    P1(kW)   Q1(kvar)       P2         Q2      P0      Q0       P_Norm      Q_Norm     P_Emerg    Q_Emerg

"Vsource.SOURCE"             1   -11975.8    -1348.0        0.0        0.0     0.0    -0.0
"Vsource.SOURCE"             2        0.0        0.0        0.0        0.0     0.0     0.0
"Line.HVMV_SUB_CONNECTOR"    1    11909.2      453.7        1.9       -1.8     0.0     0.6     3154.7      119.9        0.0        0.0
"Line.HVMV_SUB_CONNECTOR"    2   -11909.2     -453.7       -1.9        1.8    -0.0    -0.6
"Line.LN5502549-1"           1        0.0        0.0        0.0        0.0     0.0     0.0        0.0        0.0        0.0        0.0
"Line.LN5502549-1"           2        0.0        0.0        0.0        0.0     0.0     0.0
"Line.LN6259988-1"           1        0.0        0.0        0.0        0.0     0.0     0.0        0.0        0.0        0.0        0.0
"Line.LN6259988-1"           2        0.0        0.0        0.0        0.0     0.0     0.0
"Line.LN6077796-1"           1        0.0        0.0        0.0        0.0     0.0     0.0        0.0        0.0        0.0        0.0
"Line.LN6077796-1"           2        0.0        0.0        0.0        0.0     0.0     0.0
"Line.LN5835135-2"           1        0.0        0.0        0.0        0.0     0.0     0.0        0.0        0.0        0.0        0.0
"Line.LN5835135-2"           2        0.0        0.0        0.0        0.0     0.0     0.0
"Line.LN5896826-1"           1        0.0        0.0        0.0        0.0     0.0     0.0        0.0        0.0        0.0        0.0
"Line.LN5896826-1"           2        0.0        0.0        0.0        0.0     0.0     0.0
"Line.LN5714038-1"           1        0.0        0.0        0.0        0.0     0.0     0.0        0.0        0.0        0.0        0.0
"Line.LN5714038-1"           2        0.0        0.0        0.0        0.0     0.0     0.0
"Line.LN5653457-1"           1      549.2      156.5       -1.4       -4.8     4.9    -4.9        0.0        0.0        0.0        0.0
"Line.LN5653457-1"           2     -548.9     -156.4        1.4        4.8    -4.8     4.9
"Line.LN5835173-1"           1      986.5      270.2       -4.4       -3.5     7.1    -1.0        0.0        0.0        0.0        0.0
"Line.LN5835173-1"           2     -986.4     -270.1        4.4        3.5    -7.1     1.0
"Line.LN6321415-1"           1        0.0        0.0        0.0        0.0     0.0     0.0        0.0        0.0        0.0        0.0
"Line.LN6321415-1"           2        0.0        0.0        0.0        0.0     0.0     0.0
"Line.LN5565092-1"           1        0.0        0.0        0.0        0.0     0.0     0.0        0.0        0.0        0.0        0.0
"Line.LN5565092-1"           2        0.0        0.0        0.0        0.0     0.0     0.0
"Line.LN6073648-1"           1        0.0        0.0        0.0        0.0     0.0     0.0        0.0        0.0        0.0        0.0
"Line.LN6073648-1"           2        0.0        0.0        0.0        0.0     0.0     0.0
"Line.LN5774457-1"           1      544.3      145.2        1.8       -0.2    -1.0    -0.7        0.0        0.0        0.0        0.0
"Line.LN5774457-1"           2     -544.2     -145.1       -1.8        0.2     1.0     0.7
"Line.LN5534966-3"           1        0.0        0.0        0.0        0.0     0.0     0.0        0.0        0.0        0.0        0.0
"Line.LN5534966-3"           2        0.0        0.0        0.0        0.0     0.0     0.0
"Line.LN5859996-1"           1        0.0        0.0        0.0        0.0     0.0     0.0        0.0        0.0        0.0        0.0
"Line.LN5859996-1"           2        0.0        0.0        0.0        0.0     0.0     0.0
"Line.LN6138610-2"           1     2244.7      602.7        6.1        3.2    -3.6     1.0        0.0        0.0        0.0        0.0
"Line.LN6138610-2"           2    -2243.4     -602.3       -6.1       -3.2     3.6    -1.0
"Line.LN6258435-3"           1        0.0        0.0        0.0        0.0     0.0     0.0        0.0        0.0        0.0        0.0
"Line.LN6258435-3"           2        0.0        0.0        0.0        0.0     0.0     0.0
"Line.LN5804790-1"           1        0.0        0.0        0.0        0.0     0.0     0.0        0.0        0.0        0.0        0.0
"Line.LN5804790-1"           2        0.0        0.0        0.0        0.0     0.0     0.0
"Line.LN6900591-14"          1        0.0        0.0        0.0        0.0     0.0     0.0        0.0        0.0        0.0        0.0
"Line.LN6900591-14"          2        0.0        0.0        0.0        0.0     0.0     0.0
"Line.LN6409873-1"           1        0.0        0.0        0.0        0.0     0.0     0.0        0.0        0.0        0.0        0.0
"Line.LN6409873-1"           2        0.0        0.0        0.0        0.0     0.0     0.0
"Line.LN6014135-1"           1        0.0        0.0        0.0        0.0     0.0     0.0        0.0        0.0        0.0        0.0
"Line.LN6014135-1"           2        0.0        0.0        0.0        0.0     0.0     0.0
"Line.LN6077784-1"           1     1203.7      332.9        1.5       -4.8     3.0    -5.6        0.0        0.0        0.0        0.0
"Line.LN6077784-1"           2    -1203.4     -332.7       -1.5        4.8    -3.0     5.7
"Line.LN5744338-1"           1        0.0        0.0        0.0        0.0     0.0     0.0        0.0        0.0        0.0        0.0
"Line.LN5744338-1"           2        0.0        0.0        0.0        0.0     0.0     0.0
"Line.LN6991381-4"           1        0.0        0.0        0.0        0.0     0.0     0.0        0.0        0.0        0.0        0.0
"Line.LN6991381-4"           2        0.0        0.0        0.0        0.0     0.0     0.0
"Line.LN5774480-1"           1        0.0        0.0        0.0        0.0     0.0     0.0        0.0        0.0        0.0        0.0
"Line.LN5774480-1"           2        0.0        0.0        0.0        0.0     0.0     0.0
"Line.LN5986938-3"           1        0.0        0.0        0.0        0.0     0.0     0.0        0.0        0.0        0.0        0.0
"Line.LN5986938-3"           2        0.0        0.0        0.0        0.0     0.0     0.0
"Line.LN5894230-1"           1        0.0        0.0        0.0        0.0     0.0     0.0        0.0        0.0        0.0        0.0
"Line.LN5894230-1"           2        0.0        0.0        0.0        0.0     0.0     0.0
"Line.LN5683858-3"           1       68.3       18.5       -0.1       -0.2     0.4    -0.1        0.0        0.0        0.0        0.0
"Line.LN5683858-3"           2      -68.2      -18.6        0.1        0.2    -0.4     0.1
"Line.LN5920279-5"           1     6327.9      802.9       -7.2      -17.5   -13.8   -23.0        0.0        0.0        0.0        0.0
"Line.LN5920279-5"           2    -6327.0     -800.8        7.2       17.6    13.9    23.1
"Line.LN6439600-1"           1        0.0        0.0        0.0        0.0     0.0     0.0        0.0        0.0        0.0        0.0
"Line.LN6439600-1"           2        0.0        0.0        0.0        0.0     0.0     0.0
"Line.LN5589097-1"           1        0.0        0.0        0.0        0.0     0.0     0.0        0.0        0.0        0.0        0.0
"Line.LN5589097-1"           2        0.0        0.0        0.0        0.0     0.0     0.0
"Line.LN5651975-1"           1      782.1      203.1        7.7        4.3    -8.9    -0.0        0.0        0.0        0.0        0.0
"Line.LN5651975-1"           2     -781.9     -203.1       -7.6       -4.3     8.9     0.1
"Line.LN5865236-1"           1        0.0        0.0        0.0        0.0     0.0     0.0        0.0        0.0        0.0        0.0
"Line.LN5865236-1"           2        0.0        0.0        0.0        0.0     0.0     0.0
"Line.LN5593232-1"           1        0.0        0.0        0.0        0.0     0.0     0.0        0.0        0.0        0.0        0.0
"Line.LN5593232-1"           2        0.0        0.0        0.0        0.0     0.0     0.0
"Line.LN5740283-1"           1        0.0        0.0        0.0        0.0     0.0     0.0        0.0        0.0        0.0        0.0
"Line.LN5740283-1"           2        0.0        0.0        0.0        0.0     0.0     0.0
"Line.LN6106559-1"           1        0.0        0.0        0.0        0.0     0.0     0.0        0.0        0.0        0.0        0.0
"Line.LN6106559-1"           2        0.0        0.0        0.0        0.0     0.0     0.0
"Line.LN5714056-3"           1      625.6      163.1        5.8        3.1    -8.7    -1.4        0.0        0.0        0.0        0.0
"Line.LN5714056-3"           2     -625.0     -163.0       -5.7       -3.0     8.8     1.4
"Line.LN5985355-3"           1        0.0        0.0        0.0        0.0     0.0     0.0        0.0        0.0        0.0        0.0
"Line.LN5985355-3"           2        0.0        0.0        0.0        0.0     0.0     0.0
"Line.LN5531956-1"           1        0.0        0.0        0.0        0.0     0.0     0.0        0.0        0.0        0.0        0.0
"Line.LN5531956-1"           2        0.0        0.0        0.0        0.0     0.0     0.0
"Line.LN5650048-1"           1        0.0        0.0        0.0        0.0     0.0     0.0        0.0        0.0        0.0        0.0
"Line.LN5650048-1"           2        0.0        0.0        0.0        0.0     0.0     0.0
"Line.LN6290203-1"           1      814.7      223.5       -4.1       -3.5     6.3    -1.5        0.0        0.0        0.0        0.0
"Line.LN6290203-1"           2     -814.5     -223.3        4.2        3.5    -6.2     1.6
"Line.LN6134414-1"           1        0.0        0.0        0.0        0.0     0.0     0.0        0.0        0.0        0.0        0.0
"Line.LN6134414-1"           2        0.0        0.0        0.0        0.0     0.0     0.0
"Line.LN6259998-2"           1        0.0        0.0        0.0        0.0     0.0     0.0        0.0        0.0        0.0        0.0
"Line.LN6259998-2"           2        0.0        0.0        0.0        0.0     0.0     0.0
"Line.LN6078767-1"           1     2817.8     -163.4        0.5        3.2     4.5     0.3        0.0        0.0        0.0        0.0
"Line.LN6078767-1"           2    -2817.6      163.9       -0.5       -3.2    -4.5    -0.3
"Line.LN6017300-1"           1        0.0        0.0        0.0        0.0     0.0     0.0        0.0        0.0        0.0        0.0
"Line.LN6017300-1"           2        0.0        0.0        0.0        0.0     0.0     0.0
"Line.LN8979257-2"           1       29.2        7.6       -0.0        0.0     0.0    -0.0        0.0        0.0        0.0        0.0
"Line.LN8979257-2"           2      -29.2       -7.7        0.0       -0.0    -0.0     0.0
"Line.LN81048109-1"          1        0.0        0.0        0.0        0.0     0.0     0.0        0.0        0.0        0.0        0.0
"Line.LN81048109-1"          2        0.0        0.0        0.0        0.0     0.0     0.0
"Line.293471"                1       29.2        7.8       -0.0        0.0     0.0    -0.0        0.0        0.0        0.0        0.0
"Line.293471"                2      -29.2       -7.8        0.0       -0.0    -0.0     0.0
"Line.LN5534965-2"           1        0.0        0.0        0.0        0.0     0.0     0.0        0.0        0.0        0.0        0.0
"Line.LN5534965-2"           2        0.0        0.0        0.0        0.0     0.0     0.0
"Line.LN5655683-1"           1        0.0        0.0        0.0        0.0     0.0     0.0        0.0        0.0        0.0        0.0
"Line.LN5655683-1"           2        0.0        0.0        0.0        0.0     0.0     0.0
"Line.LN5686247-1"           1        0.0        0.0        0.0        0.0     0.0     0.0        0.0        0.0        0.0        0.0
"Line.LN5686247-1"           2        0.0        0.0        0.0        0.0     0.0     0.0
"Line.LN6048642-1"           1        0.0        0.0        0.0        0.0     0.0     0.0        0.0        0.0        0.0        0.0
"Line.LN6048642-1"           2        0.0        0.0        0.0        0.0     0.0     0.0
"Line.LN5928544-3"           1        0.0        0.0        0.0        0.0     0.0     0.0        0.0        0.0        0.0        0.0
"Line.LN5928544-3"           2        0.0        0.0        0.0        0.0     0.0     0.0
"Line.LN6108172-1"           1        0.0        0.0        0.0        0.0     0.0     0.0        0.0        0.0        0.0        0.0
"Line.LN6108172-1"           2        0.0        0.0        0.0        0.0     0.0     0.0
"Line.LN5532754-1"           1      706.3      185.0        6.9        3.2    -8.5    -1.3        0.0        0.0        0.0        0.0
"Line.LN5532754-1"           2     -706.2     -184.9       -6.9       -3.1     8.5     1.3
"Line.LN5591834-1"           1        0.0        0.0        0.0        0.0     0.0     0.0        0.0        0.0        0.0        0.0
"Line.LN5591834-1"           2        0.0        0.0        0.0        0.0     0.0     0.0
"Line.LN6347196-2"           1      451.7      114.5        1.7        2.6    -3.5     1.7        0.0        0.0        0.0        0.0
"Line.LN6347196-2"           2     -451.7     -114.5       -1.7       -2.6     3.5    -1.7
"Line.LN5532741-1"           1        0.0        0.0        0.0        0.0     0.0     0.0        0.0        0.0        0.0        0.0
"Line.LN5532741-1"           2        0.0        0.0        0.0        0.0     0.0     0.0
"Line.LN5804803-1"           1        0.0        0.0        0.0        0.0     0.0     0.0        0.0        0.0        0.0        0.0
"Line.LN5804803-1"           2        0.0        0.0        0.0        0.0     0.0     0.0
"Line.LN6169248-1"           1     1646.7      460.2       12.3       -4.4    -8.4    -9.8        0.0        0.0        0.0        0.0
"Line.LN6169248-1"           2    -1645.9     -459.5      -12.2        4.5     8.4     9.9
"Line.LN5532786-2"           1        0.0        0.0        0.0        0.0     0.0     0.0        0.0        0.0        0.0        0.0
"Line.LN5532786-2"           2        0.0        0.0        0.0        0.0     0.0     0.0
"Line.LN5744339-1"           1        0.0        0.0        0.0        0.0     0.0     0.0        0.0        0.0        0.0        0.0
"Line.LN5744339-1"           2        0.0        0.0        0.0        0.0     0.0     0.0
"Line.LN5531255-3"           1        0.0        0.0        0.0        0.0     0.0     0.0        0.0        0.0        0.0        0.0
"Line.LN5531255-3"           2        0.0        0.0        0.0        0.0     0.0     0.0
"Line.LN5926308-2"           1      765.9      207.2       -0.5       -1.9    -1.8    -1.6        0.0        0.0        0.0        0.0
"Line.LN5926308-2"           2     -765.7     -207.1        0.5        1.9     1.8     1.6
"Line.LN5683856-3"           1        0.0        0.0        0.0        0.0     0.0     0.0        0.0        0.0        0.0        0.0
"Line.LN5683856-3"           2        0.0        0.0        0.0        0.0     0.0     0.0
"Line.LN6171502-1"           1        0.0        0.0        0.0        0.0     0.0     0.0        0.0        0.0        0.0        0.0
"Line.LN6171502-1"           2        0.0        0.0        0.0        0.0     0.0     0.0
"Line.LN5593228-1"           1        0.0        0.0        0.0        0.0     0.0     0.0        0.0        0.0        0.0        0.0
"Line.LN5593228-1"           2        0.0        0.0        0.0        0.0     0.0     0.0
"Line.LN6380800-1"           1        0.0        0.0        0.0        0.0     0.0     0.0        0.0        0.0        0.0        0.0
"Line.LN6380800-1"           2        0.0        0.0        0.0        0.0     0.0     0.0
"Line.LN6199525-2"           1        0.0        0.0        0.0        0.0     0.0     0.0        0.0        0.0        0.0        0.0
"Line.LN6199525-2"           2        0.0        0.0        0.0        0.0     0.0     0.0
"Line.LN5772710-2"           1        0.0        0.0        0.0        0.0     0.0     0.0        0.0        0.0        0.0        0.0
"Line.LN5772710-2"           2        0.0        0.0        0.0        0.0     0.0     0.0
"Line.LN8961760-1"           1        0.0        0.0        0.0        0.0     0.0     0.0        0.0        0.0        0.0        0.0
"Line.LN8961760-1"           2        0.0        0.0        0.0        0.0     0.0     0.0
"Line.LN6047556-1"           1        0.0        0.0        0.0        0.0     0.0     0.0        0.0        0.0        0.0        0.0
"Line.LN6047556-1"           2        0.0        0.0        0.0        0.0     0.0     0.0
"Line.LN6138603-1"           1        0.0        0.0        0.0        0.0     0.0     0.0        0.0        0.0        0.0        0.0
"Line.LN6138603-1"           2        0.0        0.0        0.0        0.0     0.0     0.0
"Line.LN6108139-1"           1        0.0        0.0        0.0        0.0     0.0     0.0        0.0        0.0        0.0        0.0
"Line.LN6108139-1"           2        0.0        0.0        0.0        0.0     0.0     0.0
"Line.LN6388581-2"           1        0.0        0.0        0.0        0.0     0.0     0.0        0.0        0.0        0.0        0.0
"Line.LN6388581-2"           2        0.0        0.0        0.0        0.0     0.0     0.0
"Line.LN5774460-1"           1        0.0        0.0        0.0        0.0     0.0     0.0        0.0        0.0        0.0        0.0
"Line.LN5774460-1"           2        0.0        0.0        0.0        0.0     0.0     0.0
"Line.LN5624387-1"           1        0.0        0.0        0.0        0.0     0.0     0.0        0.0        0.0        0.0        0.0
"Line.LN5624387-1"           2        0.0        0.0        0.0        0.0     0.0     0.0
"Line.LN6137087-1"           1        0.0        0.0        0.0        0.0     0.0     0.0        0.0        0.0        0.0        0.0
"Line.LN6137087-1"           2        0.0        0.0        0.0        0.0     0.0     0.0
"Line.LN6077809-1"           1        0.0        0.0        0.0        0.0     0.0     0.0        0.0        0.0        0.0        0.0
"Line.LN6077809-1"           2        0.0        0.0        0.0        0.0     0.0     0.0
"Line.LN6440079-1"           1        0.0        0.0        0.0        0.0     0.0     0.0        0.0        0.0        0.0        0.0
"Line.LN6440079-1"           2        0.0        0.0        0.0        0.0     0.0     0.0
"Line.LN5804794-1"           1        0.0        0.0        0.0        0.0     0.0     0.0        0.0        0.0        0.0        0.0
"Line.LN5804794-1"           2        0.0        0.0        0.0        0.0     0.0     0.0
"Line.LN5654484-1"           1        0.0        0.0        0.0        0.0     0.0     0.0        0.0        0.0        0.0        0.0
"Line.LN5654484-1"           2        0.0        0.0        0.0        0.0     0.0     0.0
"Line.LN5774465-1"           1        0.0        0.0        0.0        0.0     0.0     0.0        0.0        0.0        0.0        0.0
"Line.LN5774465-1"           2        0.0        0.0        0.0        0.0     0.0     0.0
"Line.LN5473349-1"           1     6006.5      644.0       11.8      -14.3     2.1   -12.0        0.0        0.0        0.0        0.0
"Line.LN5473349-1"           2    -6005.6     -642.0      -11.7       14.3    -2.1    12.1
"Line.LN6169253-1"           1        0.0        0.0        0.0        0.0     0.0     0.0        0.0        0.0        0.0        0.0
"Line.LN6169253-1"           2        0.0        0.0        0.0        0.0     0.0     0.0
"Line.LN6350536-1"           1        0.0        0.0        0.0        0.0     0.0     0.0        0.0        0.0        0.0        0.0
"Line.LN6350536-1"           2        0.0        0.0        0.0        0.0     0.0     0.0
"Line.LN6048523-1"           1        0.0        0.0        0.0        0.0     0.0     0.0        0.0        0.0        0.0        0.0
"Line.LN6048523-1"           2        0.0        0.0        0.0        0.0     0.0     0.0
"Line.LN5594152-1"           1        0.0        0.0        0.0        0.0     0.0     0.0        0.0        0.0        0.0        0.0
"Line.LN5594152-1"           2        0.0        0.0        0.0        0.0     0.0     0.0
"Line.LN5865248-1"           1      831.4      224.6       -0.1       -2.1    -2.2    -1.3        0.0        0.0        0.0        0.0
"Line.LN5865248-1"           2     -831.1     -224.6        0.1        2.1     2.2     1.3
"Line.LN6046143-1"           1        0.0        0.0        0.0        0.0     0.0     0.0        0.0        0.0        0.0        0.0
"Line.LN6046143-1"           2        0.0        0.0        0.0        0.0     0.0     0.0
"Line.LN5803287-1"           1        0.0        0.0        0.0        0.0     0.0     0.0        0.0        0.0        0.0        0.0
"Line.LN5803287-1"           2        0.0        0.0        0.0        0.0     0.0     0.0
"Line.LN5589094-1"           1        0.0        0.0        0.0        0.0     0.0     0.0        0.0        0.0        0.0        0.0
"Line.LN5589094-1"           2        0.0        0.0        0.0        0.0     0.0     0.0
"Line.LN5954983-1"           1        0.0        0.0        0.0        0.0     0.0     0.0        0.0        0.0        0.0        0.0
"Line.LN5954983-1"           2        0.0        0.0        0.0        0.0     0.0     0.0
"Line.LN5924696-2"           1        0.0        0.0        0.0        0.0     0.0     0.0        0.0        0.0        0.0        0.0
"Line.LN5924696-2"           2        0.0        0.0        0.0        0.0     0.0     0.0
"Line.LN6506311-4"           1        6.0        1.4        0.1        0.1     0.1     0.1        0.0        0.0        0.0        0.0
"Line.LN6506311-4"           2       -6.0       -1.4       -0.1       -0.1    -0.1    -0.1
"Line.LN5653493-1"           1        0.0        0.0        0.0        0.0     0.0     0.0        0.0        0.0        0.0        0.0
"Line.LN5653493-1"           2        0.0        0.0        0.0        0.0     0.0     0.0
"Line.LN5684836-1"           1     6134.3      700.9       -8.7      -16.3   -10.1   -25.7        0.0        0.0        0.0        0.0
"Line.LN5684836-1"           2    -6131.7     -694.6        8.8       16.4    10.2    26.0
"Line.LN5715016-3"           1        0.0        0.0        0.0        0.0     0.0     0.0        0.0        0.0        0.0        0.0
"Line.LN5715016-3"           2        0.0        0.0        0.0        0.0     0.0     0.0
"Line.LN6138614-1"           1      882.5     -697.6        0.2       -2.0    -1.9    -1.0        0.0        0.0        0.0        0.0
"Line.LN6138614-1"           2     -881.7      697.9       -0.1        2.0     1.9     1.1
"Line.LN6077781-2"           1     5003.4     1391.9       14.8       -6.1    -1.6   -10.0        0.0        0.0        0.0        0.0
"Line.LN6077781-2"           2    -4993.9    -1383.1      -14.7        6.2     1.7    10.1
"Line.LN5675121-1"           1        0.0        0.0        0.0        0.0     0.0     0.0        0.0        0.0        0.0        0.0
"Line.LN5675121-1"           2        0.0        0.0        0.0        0.0     0.0     0.0
"Line.LN5773046-1"           1        0.0        0.0        0.0        0.0     0.0     0.0        0.0        0.0        0.0        0.0
"Line.LN5773046-1"           2        0.0        0.0        0.0        0.0     0.0     0.0
"Line.LN6380809-2"           1      724.7      219.5       -2.5      -12.5     7.6   -10.9        0.0        0.0        0.0        0.0
"Line.LN6380809-2"           2     -724.7     -219.5        2.5       12.5    -7.5    10.9
"Line.LN6018326-1"           1        0.0        0.0        0.0        0.0     0.0     0.0        0.0        0.0        0.0        0.0
"Line.LN6018326-1"           2        0.0        0.0        0.0        0.0     0.0     0.0
"Line.LN5472356-1"           1        0.0        0.0        0.0        0.0     0.0     0.0        0.0        0.0        0.0        0.0
"Line.LN5472356-1"           2        0.0        0.0        0.0        0.0     0.0     0.0
"Line.LN6139641-1"           1     7442.1     1316.3       -4.8      -12.4    -8.5   -13.0        0.0        0.0        0.0        0.0
"Line.LN6139641-1"           2    -7440.0    -1311.3        4.9       12.5     8.6    13.3
"Line.LN6018341-1"           1     2648.6     -221.0        1.0        3.1     4.4    -0.0        0.0        0.0        0.0        0.0
"Line.LN6018341-1"           2    -2647.9      222.4       -0.9       -3.1    -4.3     0.1
"Line.LN6017302-1"           1      295.3       84.1       -3.3       -1.3    -1.1    -5.1        0.0        0.0        0.0        0.0
"Line.LN6017302-1"           2     -295.3      -84.1        3.3        1.3     1.1     5.1
"Line.LN6199505-1"           1        0.0        0.0        0.0        0.0     0.0     0.0        0.0        0.0        0.0        0.0
"Line.LN6199505-1"           2        0.0        0.0        0.0        0.0     0.0     0.0
"Line.LN5682327-1"           1        0.0        0.0        0.0        0.0     0.0     0.0        0.0        0.0        0.0        0.0
"Line.LN5682327-1"           2        0.0        0.0        0.0        0.0     0.0     0.0
"Line.LN6290243-1"           1        0.0        0.0        0.0        0.0     0.0     0.0        0.0        0.0        0.0        0.0
"Line.LN6290243-1"           2        0.0        0.0        0.0        0.0     0.0     0.0
"Line.X8223_48332_SW"        1     1384.1     -560.7        1.4       -2.6    -1.2    -1.2        0.0        0.0        0.0        0.0
"Line.X8223_48332_SW"        2    -1384.1      560.7       -1.4        2.6     1.2     1.2
"Line.LN6413567-3"           1     1384.4     -560.6        1.4       -2.6    -1.2    -1.1        0.0        0.0        0.0        0.0
"Line.LN6413567-3"           2    -1384.1      560.7       -1.4        2.6     1.2     1.2
"Line.LN5591731-3"           1     6373.1      830.7       -6.6      -17.4   -14.2   -21.6        0.0        0.0        0.0        0.0
"Line.LN5591731-3"           2    -6373.0     -830.5        6.6       17.4    14.2    21.6
"Line.LN5653470-1"           1       29.2        7.7       -0.0        0.0     0.1     0.0        0.0        0.0        0.0        0.0
"Line.LN5653470-1"           2      -29.2       -7.8        0.0       -0.0    -0.1    -0.0
"Line.LN6017316-1"           1        0.0        0.0        0.0        0.0     0.0     0.0        0.0        0.0        0.0        0.0
"Line.LN6017316-1"           2        0.0        0.0        0.0        0.0     0.0     0.0
"Line.LN5926299-1"           1        0.0        0.0        0.0        0.0     0.0     0.0        0.0        0.0        0.0        0.0
"Line.LN5926299-1"           2        0.0        0.0        0.0        0.0     0.0     0.0
"Line.LN5683831-1"           1      862.8      232.7       -0.1       -1.8    -1.8    -1.1        0.0        0.0        0.0        0.0
"Line.LN5683831-1"           2     -862.4     -232.5        0.1        1.8     1.8     1.2
"Line.LN6352700-1"           1        0.0        0.0        0.0        0.0     0.0     0.0        0.0        0.0        0.0        0.0
"Line.LN6352700-1"           2        0.0        0.0        0.0        0.0     0.0     0.0
"Line.LN6047570-1"           1        0.0        0.0        0.0        0.0     0.0     0.0        0.0        0.0        0.0        0.0
"Line.LN6047570-1"           2        0.0        0.0        0.0        0.0     0.0     0.0
"Line.LN5624342-1"           1     6175.4      727.7       -8.9      -16.0    -9.7   -25.8        0.0        0.0        0.0        0.0
"Line.LN5624342-1"           2    -6173.3     -722.6        9.0       16.1     9.8    26.1
"Line.LN6259992-1"           1        0.0        0.0        0.0        0.0     0.0     0.0        0.0        0.0        0.0        0.0
"Line.LN6259992-1"           2        0.0        0.0        0.0        0.0     0.0     0.0
"Line.LN5841919-1"           1        0.0        0.0        0.0        0.0     0.0     0.0        0.0        0.0        0.0        0.0
"Line.LN5841919-1"           2        0.0        0.0        0.0        0.0     0.0     0.0
"Line.LN6380811-1"           1        0.0        0.0        0.0        0.0     0.0     0.0        0.0        0.0        0.0        0.0
"Line.LN6380811-1"           2        0.0        0.0        0.0        0.0     0.0     0.0
"Line.LN5683832-1"           1        0.0        0.0        0.0        0.0     0.0     0.0        0.0        0.0        0.0        0.0
"Line.LN5683832-1"           2        0.0        0.0        0.0        0.0     0.0     0.0
"Line.LN6077778-1"           1        0.0        0.0        0.0        0.0     0.0     0.0        0.0        0.0        0.0        0.0
"Line.LN6077778-1"           2        0.0        0.0        0.0        0.0     0.0     0.0
"Line.LN5561442-2"           1     7360.0     1226.4       -6.4      -14.4   -10.4   -17.6        0.0        0.0        0.0        0.0
"Line.LN5561442-2"           2    -7357.1    -1219.4        6.5       14.5    10.6    18.0
"Line.LN6259983-1"           1        0.0        0.0        0.0        0.0     0.0     0.0        0.0        0.0        0.0        0.0
"Line.LN6259983-1"           2        0.0        0.0        0.0        0.0     0.0     0.0
"Line.LN5865244-1"           1        0.0        0.0        0.0        0.0     0.0     0.0        0.0        0.0        0.0        0.0
"Line.LN5865244-1"           2        0.0        0.0        0.0        0.0     0.0     0.0
"Line.LN6350555-1"           1        0.0        0.0        0.0        0.0     0.0     0.0        0.0        0.0        0.0        0.0
"Line.LN6350555-1"           2        0.0        0.0        0.0        0.0     0.0     0.0
"Line.LN5714039-1"           1        0.0        0.0        0.0        0.0     0.0     0.0        0.0        0.0        0.0        0.0
...